LTspice 24.0.12 for Windows
Circuit: * C:\repos\snippets\CircuitAnalysis\VoltageMultiplier\LTSpice\VillardCascadingModel2\VillardCascadingModel2.asc
Start Time: Wed Feb 19 16:34:06 2025
solver = Normal
Maximum thread count: 16
tnom = 27
temp = 27
method = modified trap
Limiting rise time of source v5 to 1.5625e-06
Limiting fall time of source v5 to 1.5625e-06
Limiting rise time of source v2 to 1.5625e-06
Limiting fall time of source v2 to 1.5625e-06
Direct Newton iteration for .op point succeeded.
Heightened Def Con from 6.46723e-12 to 4.00647e-09
Total elapsed time: 0.386 seconds.

