LTspice 24.0.12 for Windows
Circuit: * C:\repos\snippets\CircuitAnalysis\VoltageMultiplier\VillardCascadingModesOfFailure\FailedDiodeNoFailure.asc
Start Time: Tue Feb 11 10:39:38 2025
solver = Normal
Maximum thread count: 16
tnom = 27
temp = 27
method = modified trap
Limiting rise time of source v1 to 3.125e-06
Limiting fall time of source v1 to 3.125e-06
.OP point found by inspection.
Total elapsed time: 0.064 seconds.

