LTspice 24.0.12 for Windows
Circuit: * C:\repos\snippets\CircuitAnalysis\VoltageMultiplier\LTSpice\RegenerativeSnubberModelling\RegenerativeSnubbe.asc
Start Time: Thu Apr  3 04:57:20 2025
solver = Normal
Maximum thread count: 16
tnom = 27
temp = 27
method = modified trap
Direct Newton iteration for .op point succeeded.
Total elapsed time: 0.030 seconds.

