LTspice 24.0.12 for Windows
Circuit: * C:\repos\snippets\CircuitAnalysis\VoltageMultiplier\LTSpice\DriverSnubberModelling1\DriverSnubberModelling1.asc
Start Time: Wed Feb 19 16:52:56 2025
solver = Normal
Maximum thread count: 16
tnom = 27
temp = 27
method = modified trap
Limiting rise time of source v5 to 3.125e-06
Limiting fall time of source v5 to 3.125e-06
Direct Newton iteration for .op point succeeded.
Total elapsed time: 0.087 seconds.

