LTspice 24.0.12 for Windows
Circuit: * C:\repos\snippets\CircuitAnalysis\VoltageMultiplier\LTSpice\VillardCascadingModel1\VillardCascadingModel1.asc
Start Time: Wed Feb 19 14:35:01 2025
Error on line 11 : s1 n001 n006 n002 0 switchshort
	 Unable to find definition of model "switchshort"
Error on line 17 : s2 n008 0 n010 0 switchshort
	 Unable to find definition of model "switchshort"
solver = Normal
Maximum thread count: 16
tnom = 27
temp = 27
method = modified trap
Limiting rise time of source v1 to 3.125e-06
Limiting fall time of source v1 to 3.125e-06
Limiting rise time of source v2 to 0.0001
Limiting fall time of source v2 to 0.0001
Limiting rise time of source v3 to 3.125e-06
Limiting fall time of source v3 to 3.125e-06
Direct Newton iteration for .op point succeeded.
Changing Tseed to 1.95313e-10
Total elapsed time: 1.993 seconds.

